<?xml version="1.0" encoding="UTF-8"?>

<!-- generated on 09-01-2018 18:13:48 by Netedit Version 0.30.0
<?xml version="1.0" encoding="UTF-8"?>

<configuration xmlns:xsi="http://www.w3.org/2001/XMLSchema-instance" xsi:noNamespaceSchemaLocation="http://sumo.dlr.de/xsd/netconvertConfiguration.xsd">

    <input>
        <sumo-net-file value="C:\omnet\map2\map.net.xml"/>
    </input>

    <output>
        <output-file value="C:\omnet\map2\map.net.xml"/>
    </output>

    <processing>
        <no-turnarounds value="true"/>
        <offset.disable-normalization value="true"/>
        <lefthand value="false"/>
        <junctions.corner-detail value="0"/>
        <rectangular-lane-cut value="false"/>
    </processing>

</configuration>
-->

<net version="0.27" xmlns:xsi="http://www.w3.org/2001/XMLSchema-instance" xsi:noNamespaceSchemaLocation="http://sumo.dlr.de/xsd/net_file.xsd">

    <location netOffset="-647530.75,-2493974.72" convBoundary="0.00,0.00,9836.30,8839.93" origBoundary="88.390128,22.471602,88.678814,22.648190" projParameter="+proj=utm +zone=45 +ellps=WGS84 +datum=WGS84 +units=m +no_defs"/>

    <type id="highway.bridleway" priority="1" numLanes="1" speed="2.78" allow="pedestrian" oneway="1" width="2.00"/>
    <type id="highway.bus_guideway" priority="1" numLanes="1" speed="8.33" allow="bus" oneway="1"/>
    <type id="highway.cycleway" priority="1" numLanes="1" speed="5.56" allow="bicycle" oneway="0" width="1.00"/>
    <type id="highway.footway" priority="1" numLanes="1" speed="8.33" allow="pedestrian" oneway="1" width="2.00"/>
    <type id="highway.ford" priority="1" numLanes="1" speed="2.78" allow="army" oneway="0"/>
    <type id="highway.living_street" priority="3" numLanes="1" speed="2.78" disallow="tram rail_urban rail rail_electric ship" oneway="0"/>
    <type id="highway.motorway" priority="13" numLanes="2" speed="44.44" allow="private emergency authority army vip passenger hov taxi bus coach delivery truck trailer motorcycle evehicle custom1 custom2" oneway="1"/>
    <type id="highway.motorway_link" priority="12" numLanes="1" speed="22.22" allow="private emergency authority army vip passenger hov taxi bus coach delivery truck trailer motorcycle evehicle custom1 custom2" oneway="1"/>
    <type id="highway.path" priority="1" numLanes="1" speed="2.78" allow="bicycle pedestrian" oneway="1" width="2.00"/>
    <type id="highway.pedestrian" priority="1" numLanes="1" speed="8.33" allow="pedestrian" oneway="1" width="2.00"/>
    <type id="highway.primary" priority="9" numLanes="2" speed="27.78" disallow="tram rail_urban rail rail_electric ship" oneway="0"/>
    <type id="highway.primary_link" priority="8" numLanes="1" speed="22.22" disallow="tram rail_urban rail rail_electric ship" oneway="0"/>
    <type id="highway.raceway" priority="14" numLanes="2" speed="83.33" allow="vip" oneway="0"/>
    <type id="highway.residential" priority="4" numLanes="1" speed="13.89" disallow="tram rail_urban rail rail_electric ship" oneway="0"/>
    <type id="highway.secondary" priority="7" numLanes="2" speed="27.78" disallow="tram rail_urban rail rail_electric ship" oneway="0"/>
    <type id="highway.secondary_link" priority="6" numLanes="1" speed="22.22" disallow="tram rail_urban rail rail_electric ship" oneway="0"/>
    <type id="highway.service" priority="2" numLanes="1" speed="5.56" allow="delivery bicycle pedestrian" oneway="0"/>
    <type id="highway.services" priority="1" numLanes="1" speed="8.33" disallow="tram rail_urban rail rail_electric ship" oneway="0"/>
    <type id="highway.stairs" priority="1" numLanes="1" speed="1.39" allow="pedestrian" oneway="1" width="2.00"/>
    <type id="highway.step" priority="1" numLanes="1" speed="1.39" allow="pedestrian" oneway="1" width="2.00"/>
    <type id="highway.steps" priority="1" numLanes="1" speed="1.39" allow="pedestrian" oneway="1" width="2.00"/>
    <type id="highway.tertiary" priority="6" numLanes="1" speed="22.22" disallow="tram rail_urban rail rail_electric ship" oneway="0"/>
    <type id="highway.tertiary_link" priority="5" numLanes="1" speed="22.22" disallow="tram rail_urban rail rail_electric ship" oneway="0"/>
    <type id="highway.track" priority="1" numLanes="1" speed="5.56" disallow="tram rail_urban rail rail_electric ship" oneway="0"/>
    <type id="highway.trunk" priority="11" numLanes="2" speed="27.78" disallow="tram rail_urban rail rail_electric bicycle pedestrian ship" oneway="0"/>
    <type id="highway.trunk_link" priority="10" numLanes="1" speed="22.22" disallow="tram rail_urban rail rail_electric bicycle pedestrian ship" oneway="0"/>
    <type id="highway.unclassified" priority="5" numLanes="1" speed="13.89" disallow="tram rail_urban rail rail_electric ship" oneway="0"/>
    <type id="highway.unsurfaced" priority="1" numLanes="1" speed="8.33" disallow="tram rail_urban rail rail_electric ship" oneway="0"/>
    <type id="railway.light_rail" priority="15" numLanes="1" speed="27.78" allow="rail_urban" oneway="1"/>
    <type id="railway.preserved" priority="15" numLanes="1" speed="27.78" allow="rail" oneway="1"/>
    <type id="railway.rail" priority="15" numLanes="1" speed="83.33" allow="rail rail_electric" oneway="1"/>
    <type id="railway.subway" priority="15" numLanes="1" speed="27.78" allow="rail_urban" oneway="1"/>
    <type id="railway.tram" priority="15" numLanes="1" speed="13.89" allow="tram" oneway="1"/>

    <edge id=":1352557877_0" function="internal">
        <lane id=":1352557877_0_0" index="0" disallow="tram rail_urban rail rail_electric ship" speed="25.00" length="5.04" shape="1873.69,3972.98 1872.32,3973.20 1871.35,3973.80 1870.78,3974.78 1870.62,3976.14"/>
    </edge>
    <edge id=":1352557877_1" function="internal">
        <lane id=":1352557877_1_0" index="0" disallow="tram rail_urban rail rail_electric ship" speed="27.78" length="6.49" shape="1873.69,3972.98 1871.72,3973.00 1870.37,3972.99 1869.02,3972.92 1867.05,3972.78"/>
        <lane id=":1352557877_1_1" index="1" disallow="tram rail_urban rail rail_electric ship" speed="27.78" length="6.49" shape="1873.63,3969.68 1871.75,3969.70 1870.46,3969.69 1869.17,3969.62 1867.30,3969.49"/>
    </edge>
    <edge id=":1352557877_3" function="internal">
        <lane id=":1352557877_3_0" index="0" disallow="tram rail_urban rail rail_electric ship" speed="22.22" length="9.63" shape="1870.51,3966.51 1870.62,3976.14"/>
    </edge>
    <edge id=":1352557877_4" function="internal">
        <lane id=":1352557877_4_0" index="0" disallow="tram rail_urban rail rail_electric ship" speed="25.00" length="5.09" shape="1870.51,3966.51 1870.31,3967.90 1869.70,3968.86 1868.70,3969.39 1867.30,3969.49"/>
    </edge>
    <edge id=":1352557878_0" function="internal">
        <lane id=":1352557878_0_0" index="0" disallow="tram rail_urban rail rail_electric ship" speed="22.22" length="6.38" shape="1850.67,3586.76 1849.34,3587.15 1848.44,3588.11 1847.97,3589.63 1847.92,3591.71"/>
    </edge>
    <edge id=":1352557878_1" function="internal">
        <lane id=":1352557878_1_0" index="0" disallow="tram rail_urban rail rail_electric ship" speed="18.06" length="6.47" shape="1850.67,3586.76 1848.83,3587.15 1847.64,3587.80 1846.46,3588.45 1844.61,3588.83"/>
    </edge>
    <edge id=":1352557878_2" function="internal">
        <lane id=":1352557878_2_0" index="0" disallow="tram rail_urban rail rail_electric ship" speed="18.06" length="7.83" shape="1844.39,3585.54 1845.76,3585.85 1846.81,3586.98 1847.53,3588.93 1847.92,3591.71"/>
    </edge>
    <edge id=":1352557878_3" function="internal">
        <lane id=":1352557878_3_0" index="0" disallow="tram rail_urban rail rail_electric ship" speed="13.89" length="4.82" shape="1844.39,3585.54 1845.68,3586.28 1846.15,3587.08 1845.79,3587.93 1844.61,3588.83"/>
    </edge>
    <edge id=":2008874197_0" function="internal">
        <lane id=":2008874197_0_0" index="0" disallow="tram rail_urban rail rail_electric ship" speed="22.22" length="5.68" shape="4501.72,3249.58 4499.84,3245.19 4499.97,3244.30"/>
    </edge>
    <edge id=":2008874197_1" function="internal">
        <lane id=":2008874197_1_0" index="0" disallow="tram rail_urban rail rail_electric ship" speed="22.22" length="2.29" shape="4501.72,3249.58 4501.86,3248.10 4502.31,3247.44"/>
    </edge>
    <edge id=":2008874197_4" function="internal">
        <lane id=":2008874197_4_0" index="0" speed="22.22" length="9.07" shape="4499.97,3244.30 4500.16,3243.01 4502.68,3243.04 4507.41,3245.28"/>
    </edge>
    <edge id=":2008874197_5" function="internal">
        <lane id=":2008874197_5_0" index="0" speed="22.22" length="2.53" shape="4502.31,3247.44 4502.38,3247.34 4503.31,3247.31 4504.62,3248.01"/>
    </edge>
    <edge id=":2008874197_2" function="internal">
        <lane id=":2008874197_2_0" index="0" disallow="tram rail_urban rail rail_electric ship" speed="22.22" length="17.82" shape="4493.10,3234.72 4496.21,3237.52 4499.95,3240.40 4503.84,3243.08 4507.41,3245.28"/>
    </edge>
    <edge id=":2008874197_3" function="internal">
        <lane id=":2008874197_3_0" index="0" disallow="tram rail_urban rail rail_electric ship" speed="22.22" length="17.63" shape="4493.10,3234.72 4496.05,3237.67 4499.29,3241.05 4502.31,3244.58 4504.62,3248.01"/>
    </edge>
    <edge id=":2008874199_0" function="internal">
        <lane id=":2008874199_0_0" index="0" disallow="tram rail_urban rail rail_electric ship" speed="22.22" length="9.42" shape="3052.81,3053.76 3043.45,3054.82"/>
    </edge>
    <edge id=":2008874199_1" function="internal">
        <lane id=":2008874199_1_0" index="0" disallow="tram rail_urban rail rail_electric ship" speed="22.22" length="5.27" shape="3052.81,3053.76 3049.62,3053.61 3047.79,3052.62"/>
    </edge>
    <edge id=":2008874199_2" function="internal">
        <lane id=":2008874199_2_0" index="0" disallow="tram rail_urban rail rail_electric ship" speed="22.22" length="2.41" shape="3052.81,3053.76 3051.50,3053.06 3051.01,3052.28"/>
    </edge>
    <edge id=":2008874199_9" function="internal">
        <lane id=":2008874199_9_0" index="0" speed="22.22" length="6.06" shape="3047.79,3052.62 3047.44,3052.44 3046.28,3050.26 3046.12,3047.07"/>
    </edge>
    <edge id=":2008874199_10" function="internal">
        <lane id=":2008874199_10_0" index="0" speed="22.22" length="2.41" shape="3051.01,3052.28 3051.35,3051.42 3052.50,3050.48"/>
    </edge>
    <edge id=":2008874199_3" function="internal">
        <lane id=":2008874199_3_0" index="0" disallow="tram rail_urban rail rail_electric ship" speed="22.22" length="5.24" shape="3049.41,3047.38 3049.48,3048.86 3050.02,3049.87 3051.03,3050.41 3052.50,3050.48"/>
    </edge>
    <edge id=":2008874199_4" function="internal">
        <lane id=":2008874199_4_0" index="0" disallow="tram rail_urban rail rail_electric ship" speed="22.22" length="10.38" shape="3049.41,3047.38 3048.80,3050.36 3047.60,3052.59 3045.82,3054.08 3043.45,3054.82"/>
    </edge>
    <edge id=":2008874199_5" function="internal">
        <lane id=":2008874199_5_0" index="0" disallow="tram rail_urban rail rail_electric ship" speed="22.22" length="4.82" shape="3049.41,3047.38 3048.47,3048.53 3047.61,3048.87 3046.83,3048.38 3046.12,3047.07"/>
    </edge>
    <edge id=":2008874199_6" function="internal">
        <lane id=":2008874199_6_0" index="0" disallow="tram rail_urban rail rail_electric ship" speed="22.22" length="5.93" shape="3042.99,3051.56 3044.22,3051.13 3045.15,3050.24 3045.78,3048.89 3046.12,3047.07"/>
    </edge>
    <edge id=":2008874199_7" function="internal">
        <lane id=":2008874199_7_0" index="0" disallow="tram rail_urban rail rail_electric ship" speed="22.22" length="9.57" shape="3042.99,3051.56 3052.50,3050.48"/>
    </edge>
    <edge id=":2008874199_8" function="internal">
        <lane id=":2008874199_8_0" index="0" disallow="tram rail_urban rail rail_electric ship" speed="22.22" length="2.51" shape="3042.99,3051.56 3044.33,3052.20 3044.86,3052.96 3044.82,3053.06"/>
    </edge>
    <edge id=":2008874199_11" function="internal">
        <lane id=":2008874199_11_0" index="0" speed="22.22" length="2.31" shape="3044.82,3053.06 3044.56,3053.84 3043.45,3054.82"/>
    </edge>
    <edge id=":2008874230_0" function="internal">
        <lane id=":2008874230_0_0" index="0" disallow="tram rail_urban rail rail_electric ship" speed="18.06" length="5.08" shape="3196.70,2708.89 3195.62,2707.98 3194.53,2707.65 3193.42,2707.90 3192.29,2708.72"/>
    </edge>
    <edge id=":2008874230_1" function="internal">
        <lane id=":2008874230_1_0" index="0" disallow="tram rail_urban rail rail_electric ship" speed="18.06" length="10.59" shape="3196.70,2708.89 3195.08,2706.46 3194.66,2704.12 3195.45,2701.88 3197.44,2699.75"/>
    </edge>
    <edge id=":2008874230_2" function="internal">
        <lane id=":2008874230_2_0" index="0" disallow="tram rail_urban rail rail_electric ship" speed="13.89" length="4.82" shape="3196.70,2708.89 3196.49,2707.42 3196.83,2706.56 3197.71,2706.32 3199.16,2706.69"/>
    </edge>
    <edge id=":2008874230_3" function="internal">
        <lane id=":2008874230_3_0" index="0" disallow="tram rail_urban rail rail_electric ship" speed="18.06" length="5.06" shape="3199.51,2702.32 3198.56,2703.34 3198.18,2704.41 3198.38,2705.53 3199.16,2706.69"/>
    </edge>
    <edge id=":2008874230_4" function="internal">
        <lane id=":2008874230_4_0" index="0" disallow="tram rail_urban rail rail_electric ship" speed="22.22" length="9.66" shape="3199.51,2702.32 3197.28,2704.12 3195.79,2705.39 3194.35,2706.72 3192.29,2708.72"/>
    </edge>
    <edge id=":2008874230_5" function="internal">
        <lane id=":2008874230_5_0" index="0" disallow="tram rail_urban rail rail_electric ship" speed="22.22" length="2.41" shape="3199.51,2702.32 3198.03,2702.45 3197.19,2702.07"/>
    </edge>
    <edge id=":2008874230_9" function="internal">
        <lane id=":2008874230_9_0" index="0" speed="22.22" length="2.41" shape="3197.19,2702.07 3197.00,2701.17 3197.44,2699.75"/>
    </edge>
    <edge id=":2008874230_6" function="internal">
        <lane id=":2008874230_6_0" index="0" disallow="tram rail_urban rail rail_electric ship" speed="22.22" length="9.97" shape="3189.99,2706.36 3192.11,2704.29 3193.60,2702.92 3195.14,2701.61 3197.44,2699.75"/>
    </edge>
    <edge id=":2008874230_7" function="internal">
        <lane id=":2008874230_7_0" index="0" disallow="tram rail_urban rail rail_electric ship" speed="18.06" length="5.39" shape="3189.99,2706.36 3192.33,2704.64 3194.65,2704.13 3194.76,2704.16"/>
    </edge>
    <edge id=":2008874230_8" function="internal">
        <lane id=":2008874230_8_0" index="0" disallow="tram rail_urban rail rail_electric ship" speed="22.22" length="2.41" shape="3189.99,2706.36 3191.45,2706.08 3192.32,2706.38"/>
    </edge>
    <edge id=":2008874230_10" function="internal">
        <lane id=":2008874230_10_0" index="0" speed="18.06" length="5.18" shape="3194.76,2704.16 3196.92,2704.81 3199.16,2706.69"/>
    </edge>
    <edge id=":2008874230_11" function="internal">
        <lane id=":2008874230_11_0" index="0" speed="22.22" length="2.41" shape="3192.32,2706.38 3192.60,2707.26 3192.29,2708.72"/>
    </edge>
    <edge id=":2008874328_0" function="internal">
        <lane id=":2008874328_0_0" index="0" disallow="tram rail_urban rail rail_electric ship" speed="22.22" length="13.78" shape="3357.30,2478.02 3360.42,2479.74 3363.41,2481.22 3366.49,2482.48 3369.89,2483.53"/>
    </edge>
    <edge id=":2008874328_1" function="internal">
        <lane id=":2008874328_1_0" index="0" disallow="tram rail_urban rail rail_electric ship" speed="22.22" length="12.29" shape="3357.30,2478.02 3360.82,2480.47 3362.00,2482.49 3360.84,2484.08 3357.34,2485.26"/>
    </edge>
    <edge id=":2008874328_2" function="internal">
        <lane id=":2008874328_2_0" index="0" disallow="tram rail_urban rail rail_electric ship" speed="22.22" length="13.44" shape="3356.67,2482.02 3360.12,2481.65 3363.30,2481.92 3366.47,2482.61 3369.89,2483.53"/>
    </edge>
    <edge id=":2008874328_3" function="internal">
        <lane id=":2008874328_3_0" index="0" disallow="tram rail_urban rail rail_electric ship" speed="22.22" length="4.82" shape="3356.67,2482.02 3358.05,2482.58 3358.62,2483.31 3358.38,2484.20 3357.34,2485.26"/>
    </edge>
    <edge id=":2008874394_0" function="internal">
        <lane id=":2008874394_0_0" index="0" disallow="tram rail_urban rail rail_electric ship" speed="25.00" length="5.32" shape="4603.91,3303.42 4605.28,3304.07 4606.42,3304.05 4607.34,3303.37 4608.04,3302.02"/>
    </edge>
    <edge id=":2008874394_1" function="internal">
        <lane id=":2008874394_1_0" index="0" disallow="tram rail_urban rail rail_electric ship" speed="22.22" length="10.36" shape="4603.91,3303.42 4612.70,3308.90"/>
    </edge>
    <edge id=":2008874394_2" function="internal">
        <lane id=":2008874394_2_0" index="0" disallow="tram rail_urban rail rail_electric ship" speed="27.78" length="7.73" shape="4605.42,3309.29 4608.04,3302.02"/>
        <lane id=":2008874394_2_1" index="1" disallow="tram rail_urban rail rail_electric ship" speed="27.78" length="7.73" shape="4608.54,3310.39 4611.15,3303.11"/>
    </edge>
    <edge id=":2008874394_4" function="internal">
        <lane id=":2008874394_4_0" index="0" disallow="tram rail_urban rail rail_electric ship" speed="25.00" length="5.19" shape="4608.54,3310.39 4609.31,3309.13 4610.26,3308.46 4611.39,3308.38 4612.70,3308.90"/>
    </edge>
    <edge id=":2008874453_0" function="internal">
        <lane id=":2008874453_0_0" index="0" disallow="tram rail_urban rail rail_electric ship" speed="22.22" length="12.96" shape="4541.47,3266.25 4552.36,3273.27"/>
    </edge>
    <edge id=":2008874453_1" function="internal">
        <lane id=":2008874453_1_0" index="0" disallow="tram rail_urban rail rail_electric ship" speed="22.22" length="12.94" shape="4541.47,3266.25 4544.08,3268.41 4545.98,3270.76 4547.76,3273.28 4549.98,3275.92"/>
    </edge>
    <edge id=":2008874513_0" function="internal">
        <lane id=":2008874513_0_0" index="0" disallow="tram rail_urban rail rail_electric ship" speed="22.22" length="7.14" shape="3539.40,2765.89 3537.33,2765.42 3535.91,2765.09 3534.49,2764.85 3532.38,2764.63"/>
    </edge>
    <edge id=":2008874513_1" function="internal">
        <lane id=":2008874513_1_0" index="0" disallow="tram rail_urban rail rail_electric ship" speed="22.22" length="5.42" shape="3539.40,2765.89 3536.58,2764.83 3534.87,2763.14"/>
    </edge>
    <edge id=":2008874513_2" function="internal">
        <lane id=":2008874513_2_0" index="0" disallow="tram rail_urban rail rail_electric ship" speed="22.22" length="2.41" shape="3539.40,2765.89 3538.36,2764.82 3538.14,2763.92"/>
    </edge>
    <edge id=":2008874513_9" function="internal">
        <lane id=":2008874513_9_0" index="0" speed="22.22" length="5.42" shape="3534.87,2763.14 3534.27,2760.81 3534.78,2757.84"/>
    </edge>
    <edge id=":2008874513_10" function="internal">
        <lane id=":2008874513_10_0" index="0" speed="22.22" length="2.41" shape="3538.14,2763.92 3538.72,2763.21 3540.10,2762.66"/>
    </edge>
    <edge id=":2008874513_3" function="internal">
        <lane id=":2008874513_3_0" index="0" disallow="tram rail_urban rail rail_electric ship" speed="22.22" length="5.12" shape="3537.92,2758.86 3537.68,2760.26 3537.96,2761.36 3538.77,2762.16 3540.10,2762.66"/>
    </edge>
    <edge id=":2008874513_4" function="internal">
        <lane id=":2008874513_4_0" index="0" disallow="tram rail_urban rail rail_electric ship" speed="22.22" length="8.62" shape="3537.92,2758.86 3536.83,2761.51 3535.55,2763.35 3534.06,2764.39 3532.38,2764.63"/>
    </edge>
    <edge id=":2008874513_5" function="internal">
        <lane id=":2008874513_5_0" index="0" disallow="tram rail_urban rail rail_electric ship" speed="22.22" length="4.82" shape="3537.92,2758.86 3536.75,2759.78 3535.84,2759.92 3535.18,2759.27 3534.78,2757.84"/>
    </edge>
    <edge id=":2008874513_6" function="internal">
        <lane id=":2008874513_6_0" index="0" disallow="tram rail_urban rail rail_electric ship" speed="22.22" length="4.24" shape="3532.68,2761.34 3533.39,2760.97 3533.99,2759.98 3534.46,2758.80 3534.78,2757.84"/>
    </edge>
    <edge id=":2008874513_7" function="internal">
        <lane id=":2008874513_7_0" index="0" disallow="tram rail_urban rail rail_electric ship" speed="22.22" length="7.55" shape="3532.68,2761.34 3534.91,2761.58 3536.42,2761.83 3537.92,2762.17 3540.10,2762.66"/>
    </edge>
    <edge id=":2008874513_8" function="internal">
        <lane id=":2008874513_8_0" index="0" disallow="tram rail_urban rail rail_electric ship" speed="22.22" length="2.41" shape="3532.68,2761.34 3533.84,2762.28 3534.17,2763.13"/>
    </edge>
    <edge id=":2008874513_11" function="internal">
        <lane id=":2008874513_11_0" index="0" speed="22.22" length="2.41" shape="3534.17,2763.13 3533.69,2763.92 3532.38,2764.63"/>
    </edge>
    <edge id=":2008874525_0" function="internal">
        <lane id=":2008874525_0_0" index="0" disallow="tram rail_urban rail rail_electric ship" speed="27.78" length="10.04" shape="4584.52,3355.55 4586.12,3353.04 4587.14,3351.27 4588.02,3349.43 4589.22,3346.70"/>
        <lane id=":2008874525_0_1" index="1" disallow="tram rail_urban rail rail_electric ship" speed="27.78" length="10.04" shape="4587.29,3357.33 4588.90,3354.82 4589.93,3353.06 4590.83,3351.23 4592.03,3348.51"/>
    </edge>
    <edge id=":2008874525_2" function="internal">
        <lane id=":2008874525_2_0" index="0" disallow="tram rail_urban rail rail_electric ship" speed="25.00" length="9.93" shape="4587.29,3357.33 4589.04,3355.03 4590.60,3353.78 4592.42,3352.77 4594.94,3351.23"/>
    </edge>
    <edge id=":2008874552_0" function="internal">
        <lane id=":2008874552_0_0" index="0" disallow="tram rail_urban rail rail_electric ship" speed="27.78" length="14.17" shape="3801.80,3652.83 3815.59,3650.00"/>
        <lane id=":2008874552_0_1" index="1" disallow="tram rail_urban rail rail_electric ship" speed="27.78" length="14.17" shape="3802.44,3656.07 3816.42,3653.20"/>
    </edge>
    <edge id=":2008874552_2" function="internal">
        <lane id=":2008874552_2_0" index="0" disallow="tram rail_urban rail rail_electric ship" speed="25.00" length="14.61" shape="3804.34,3660.53 3805.64,3658.35 3808.08,3656.41 3811.68,3654.69 3816.42,3653.20"/>
    </edge>
    <edge id=":2008874590_0" function="internal">
        <lane id=":2008874590_0_0" index="0" disallow="tram rail_urban rail rail_electric ship" speed="25.00" length="6.34" shape="4602.34,3297.76 4601.90,3299.48 4602.00,3300.99 4602.64,3302.29 4603.83,3303.36"/>
    </edge>
    <edge id=":2008874590_1" function="internal">
        <lane id=":2008874590_1_0" index="0" disallow="tram rail_urban rail rail_electric ship" speed="27.78" length="7.43" shape="4602.34,3297.76 4599.66,3304.69"/>
        <lane id=":2008874590_1_1" index="1" disallow="tram rail_urban rail rail_electric ship" speed="27.78" length="7.43" shape="4599.26,3296.57 4596.58,3303.50"/>
    </edge>
    <edge id=":2008874590_3" function="internal">
        <lane id=":2008874590_3_0" index="0" disallow="tram rail_urban rail rail_electric ship" speed="22.22" length="10.18" shape="4595.14,3298.06 4603.83,3303.36"/>
    </edge>
    <edge id=":2008874590_4" function="internal">
        <lane id=":2008874590_4_0" index="0" disallow="tram rail_urban rail rail_electric ship" speed="25.00" length="6.23" shape="4595.14,3298.06 4596.32,3299.01 4596.96,3300.23 4597.04,3301.73 4596.58,3303.50"/>
    </edge>
    <edge id=":2008874650_0" function="internal">
        <lane id=":2008874650_0_0" index="0" disallow="tram rail_urban rail rail_electric ship" speed="22.22" length="12.27" shape="4650.87,3328.86 4661.86,3334.30"/>
    </edge>
    <edge id=":2008874650_1" function="internal">
        <lane id=":2008874650_1_0" index="0" disallow="tram rail_urban rail rail_electric ship" speed="22.22" length="12.33" shape="4649.82,3332.57 4653.18,3332.51 4656.03,3332.58 4658.79,3333.09 4661.86,3334.30"/>
    </edge>
    <edge id=":2008874710_0" function="internal">
        <lane id=":2008874710_0_0" index="0" disallow="tram rail_urban rail rail_electric ship" speed="25.00" length="5.25" shape="4607.16,3294.14 4605.84,3293.67 4604.72,3293.81 4603.79,3294.56 4603.06,3295.90"/>
    </edge>
    <edge id=":2008874710_1" function="internal">
        <lane id=":2008874710_1_0" index="0" disallow="tram rail_urban rail rail_electric ship" speed="22.22" length="10.54" shape="4607.16,3294.14 4597.88,3289.13"/>
    </edge>
    <edge id=":2008874710_2" function="internal">
        <lane id=":2008874710_2_0" index="0" disallow="tram rail_urban rail rail_electric ship" speed="27.78" length="8.08" shape="4605.08,3288.09 4604.58,3290.44 4604.27,3292.06 4603.86,3293.65 4603.06,3295.90"/>
        <lane id=":2008874710_2_1" index="1" disallow="tram rail_urban rail rail_electric ship" speed="27.78" length="8.08" shape="4601.86,3287.34 4601.36,3289.68 4601.04,3291.30 4600.62,3292.88 4599.81,3295.14"/>
    </edge>
    <edge id=":2008874710_4" function="internal">
        <lane id=":2008874710_4_0" index="0" disallow="tram rail_urban rail rail_electric ship" speed="25.00" length="5.35" shape="4601.86,3287.34 4601.31,3288.76 4600.46,3289.54 4599.32,3289.66 4597.88,3289.13"/>
    </edge>
    <edge id=":2008874764_0" function="internal">
        <lane id=":2008874764_0_0" index="0" disallow="tram rail_urban rail rail_electric ship" speed="22.22" length="10.03" shape="4616.15,3298.81 4607.25,3294.18"/>
    </edge>
    <edge id=":2008874764_1" function="internal">
        <lane id=":2008874764_1_0" index="0" disallow="tram rail_urban rail rail_electric ship" speed="25.00" length="5.98" shape="4616.15,3298.81 4614.93,3297.93 4614.24,3296.79 4614.08,3295.37 4614.45,3293.69"/>
    </edge>
    <edge id=":2008874764_2" function="internal">
        <lane id=":2008874764_2_0" index="0" disallow="tram rail_urban rail rail_electric ship" speed="25.00" length="6.03" shape="4608.97,3299.37 4609.33,3297.70 4609.16,3296.28 4608.47,3295.11 4607.25,3294.18"/>
    </edge>
    <edge id=":2008874764_3" function="internal">
        <lane id=":2008874764_3_0" index="0" disallow="tram rail_urban rail rail_electric ship" speed="27.78" length="7.17" shape="4608.97,3299.37 4611.33,3292.60"/>
        <lane id=":2008874764_3_1" index="1" disallow="tram rail_urban rail rail_electric ship" speed="27.78" length="7.17" shape="4612.08,3300.46 4614.45,3293.69"/>
    </edge>
    <edge id=":2008874767_0" function="internal">
        <lane id=":2008874767_0_0" index="0" disallow="tram rail_urban rail rail_electric ship" speed="22.22" length="6.28" shape="4312.24,3521.25 4310.89,3521.71 4309.68,3522.53 4308.61,3523.71 4307.68,3525.25"/>
    </edge>
    <edge id=":2008874767_1" function="internal">
        <lane id=":2008874767_1_0" index="0" disallow="tram rail_urban rail rail_electric ship" speed="22.22" length="12.05" shape="4312.24,3521.25 4300.47,3523.84"/>
    </edge>
    <edge id=":2008874767_2" function="internal">
        <lane id=":2008874767_2_0" index="0" disallow="tram rail_urban rail rail_electric ship" speed="22.22" length="5.16" shape="4312.24,3521.25 4309.41,3521.41 4307.22,3520.62"/>
    </edge>
    <edge id=":2008874767_3" function="internal">
        <lane id=":2008874767_3_0" index="0" disallow="tram rail_urban rail rail_electric ship" speed="22.22" length="2.41" shape="4312.24,3521.25 4310.86,3520.68 4310.30,3519.96"/>
    </edge>
    <edge id=":2008874767_16" function="internal">
        <lane id=":2008874767_16_0" index="0" speed="22.22" length="5.16" shape="4307.22,3520.62 4305.65,3518.90 4304.71,3516.23"/>
    </edge>
    <edge id=":2008874767_17" function="internal">
        <lane id=":2008874767_17_0" index="0" speed="22.22" length="2.41" shape="4310.30,3519.96 4310.54,3519.07 4311.59,3518.02"/>
    </edge>
    <edge id=":2008874767_4" function="internal">
        <lane id=":2008874767_4_0" index="0" disallow="tram rail_urban rail rail_electric ship" speed="22.22" length="5.00" shape="4307.94,3515.58 4308.40,3516.87 4309.16,3517.71 4310.22,3518.09 4311.59,3518.02"/>
    </edge>
    <edge id=":2008874767_5" function="internal">
        <lane id=":2008874767_5_0" index="0" disallow="tram rail_urban rail rail_electric ship" speed="22.22" length="10.00" shape="4307.94,3515.58 4308.61,3518.49 4308.98,3520.57 4308.77,3522.58 4307.68,3525.25"/>
    </edge>
    <edge id=":2008874767_6" function="internal">
        <lane id=":2008874767_6_0" index="0" disallow="tram rail_urban rail rail_electric ship" speed="22.22" length="12.52" shape="4307.94,3515.58 4307.95,3518.43 4306.70,3520.76 4304.21,3522.56 4300.47,3523.84"/>
    </edge>
    <edge id=":2008874767_7" function="internal">
        <lane id=":2008874767_7_0" index="0" disallow="tram rail_urban rail rail_electric ship" speed="22.22" length="4.82" shape="4307.94,3515.58 4307.38,3516.96 4306.65,3517.53 4305.76,3517.28 4304.71,3516.23"/>
    </edge>
    <edge id=":2008874767_8" function="internal">
        <lane id=":2008874767_8_0" index="0" disallow="tram rail_urban rail rail_electric ship" speed="22.22" length="7.37" shape="4299.72,3520.63 4302.13,3519.86 4303.77,3518.87 4304.63,3517.66 4304.71,3516.23"/>
    </edge>
    <edge id=":2008874767_9" function="internal">
        <lane id=":2008874767_9_0" index="0" disallow="tram rail_urban rail rail_electric ship" speed="22.22" length="12.16" shape="4299.72,3520.63 4311.59,3518.02"/>
    </edge>
    <edge id=":2008874767_10" function="internal">