<?xml version="1.0"?>
<!-- 
194 Cars leaving the Computer Science Building and campus of the University of Erlangen-Nuremberg
Copyright (C) 2008 Christoph Sommer <christoph.sommer@informatik.uni-erlangen.de>
Licensed under the Creative Commons Attribution-ShareAlike 2.0 license <http://creativecommons.org/licenses/by-sa/2.0/>
-->
<routes>

	<vType id="vtype0" accel="2.6" decel="4.5" sigma="0.5" length="2.5" minGap="2.5" maxSpeed="14" color="1,1,0"/>
  <!-- <route id="route0" edges="-190303345#7 -190303345#6" />
   <flow id="flow0" type="vtype0" route="route0" begin="0" period="3" number="17"/>  190308970#30 237686044 190308952#7 316542721#0"  -->
   
   <route id="route0" edges="190303315#13 190303266#2" />
   <flow id="flow0" type="vtype0" route="route0" begin="0" period="3" number="17"/>
   
  <route id="route1" edges="-190326102#0 190303266#1" />
   <flow id="flow1" type="vtype0" route="route1" begin="0" period="3" number="17"/> 
   
   <route id="route2" edges="190326107#0 -190326102#2" />
   <flow id="flow2" type="vtype0" route="route2" begin="0" period="3" number="17"/>
   
  <route id="route3" edges="-190326102#2 190326128" />
   <flow id="flow3" type="vtype0" route="route3" begin="0" period="3" number="17"/> 
 	
<route id="route4" edges="190308970#29  190315560#0"  />
   <flow id="flow4" type="vtype0" route="route4" begin="0" period="3" number="17"/> 

</routes>
