<?xml version="1.0" encoding="UTF-8"?>

<!-- generated on Fri Jan  5 17:01:47 2018 by SUMO polyconvert Version 0.30.0
<?xml version="1.0" encoding="UTF-8"?>

<configuration xmlns:xsi="http://www.w3.org/2001/XMLSchema-instance" xsi:noNamespaceSchemaLocation="http://sumo.dlr.de/xsd/polyconvertConfiguration.xsd">

    <input>
        <net-file value="map.net.xml"/>
        <osm-files value="map.osm"/>
        <type-file value="typemap.xml"/>
    </input>

    <output>
        <output-file value="map.poly.xml"/>
    </output>

    <processing>
        <poi-layer-offset value="5"/>
    </processing>

</configuration>
-->

<additional xmlns:xsi="http://www.w3.org/2001/XMLSchema-instance" xsi:noNamespaceSchemaLocation="http://sumo.dlr.de/xsd/additional_file.xsd">
    <location netOffset="-647530.75,-2493974.72" convBoundary="-3087.15,-3567.48,25105.03,8839.93" origBoundary="88.390128,22.471602,88.678814,22.648190" projParameter="+proj=utm +zone=45 +ellps=WGS84 +datum=WGS84 +units=m +no_defs"/>

    <poly id="153570736" type="water" color="181,209,209" fill="1" layer="-4.00" shape="181.17,4317.53 252.11,4282.38 318.25,4249.49 420.54,4201.14 500.68,4163.23 527.71,4150.59 556.08,4134.10 616.38,4090.61 659.18,4056.84 697.47,4021.42 724.60,3997.84 778.91,3948.38 800.20,3927.31 829.29,3902.77 863.60,3876.66 911.69,3832.31 945.98,3806.52 988.16,3771.14 1011.06,3750.08 1040.83,3723.61 1084.67,3682.76 1145.13,3634.34 1186.95,3603.16 1251.69,3548.32 1271.99,3528.21 1309.75,3498.93 1354.95,3457.18 1390.80,3421.29 1426.93,3383.23 1458.94,3348.14 1499.44,3311.07 1543.29,3263.70 1587.79,3217.11 1605.70,3193.31 1620.31,3196.06 1661.45,3148.78 1702.85,3103.47 1757.86,3043.69 1814.54,2990.25 1878.15,2927.22 1905.30,2895.36 1943.27,2853.27 1989.53,2807.37 2020.49,2788.53 2049.00,2761.63 2064.75,2742.04 2050.06,2735.03 2061.30,2711.82 2073.06,2720.48 2075.64,2728.50 2090.43,2710.09 2122.14,2678.06 2158.13,2649.85 2189.56,2618.99 2219.26,2583.74 2257.91,2539.19 2303.42,2498.49 2355.22,2447.65 2402.41,2404.04 2452.76,2351.92 2507.99,2300.79 2563.44,2243.77 2629.16,2177.52 2677.04,2131.39 2687.58,2114.41 2747.12,2061.20 2813.86,1993.32 2870.16,1939.04 2876.90,1927.06 2892.10,1917.90 2945.69,1863.00 2960.70,1841.21 2981.86,1820.26 3010.43,1797.20 3074.81,1737.51 3124.98,1686.36 3176.43,1638.50 3206.66,1602.78 3252.06,1556.86 3315.03,1498.27 3336.07,1470.54 3373.37,1433.83 3402.66,1402.53 3439.40,1364.15 3490.58,1317.56 3533.10,1273.35 3576.75,1229.45 3641.78,1163.89 3685.36,1122.55 3728.54,1092.32 3794.18,1044.40 3843.33,1008.69 3862.95,1001.33 3864.21,996.43 3910.66,963.20 3984.43,913.46 4073.63,853.97 4149.24,799.91 4160.44,790.13 4158.02,779.40 4152.06,771.40 4163.64,766.55 4169.07,781.98 4177.37,776.27 4183.56,780.65 4277.57,719.44 4378.86,646.56 4461.63,588.42 4550.35,532.08 4612.70,492.96 4660.15,458.64 4732.76,409.33 4824.19,348.40 4861.01,322.85 4909.67,294.16 4978.26,246.91 5052.43,194.89 5160.97,122.99 5275.38,47.05 5340.56,3.50 5435.42,-58.88 5460.97,-77.06 5478.00,-82.24 5493.43,-95.78 5525.39,-124.25 5585.19,-164.24 5618.30,-196.88 5657.03,-236.24 5667.53,-256.08 5706.85,-316.37 5741.34,-376.09 5767.58,-424.66 5797.62,-472.36 5833.88,-534.52 5882.06,-615.44 5926.31,-685.58 5934.79,-706.23 5968.99,-758.93 6002.67,-809.95 6046.42,-883.84 6082.05,-946.06 6123.67,-1005.13 6123.95,-1017.08 6134.11,-1022.01 6147.11,-1050.73 6158.45,-1059.82 6192.69,-1119.91 6226.50,-1177.76 6260.39,-1233.87 6299.67,-1304.57 6314.89,-1331.87 6323.30,-1368.40 6334.25,-1403.68 6330.81,-1452.15 6318.21,-1511.93 6297.51,-1579.75 6272.54,-1652.33 6243.51,-1727.61 6226.02,-1783.16 6207.98,-1841.27 6196.21,-1873.27 6176.01,-1952.44 6148.57,-2042.04 6112.31,-2153.88 6097.94,-2200.67 6075.26,-2275.25 6049.77,-2363.25 6029.80,-2433.94 6007.90,-2499.00 6002.12,-2496.31 5992.98,-2524.87 5987.91,-2536.46 5995.14,-2541.65 5983.41,-2581.79 5974.35,-2579.34 5968.97,-2599.01 5979.37,-2602.31 5964.27,-2642.76 5958.67,-2640.95 5950.47,-2661.63 5959.28,-2664.78 5949.09,-2695.11 5938.97,-2693.71 5918.49,-2759.81 5925.28,-2767.25 5913.16,-2794.25 5906.82,-2795.94 5896.36,-2840.45 5903.95,-2844.76 5878.57,-2907.27 5861.31,-2964.03 5844.20,-3022.37 5823.09,-3089.89 5818.63,-3090.63 5817.43,-3109.72 5807.32,-3148.70 5797.37,-3154.84 5786.84,-3196.12 5793.75,-3200.05 5785.09,-3219.85 5779.00,-3219.25 5760.32,-3274.37 5766.78,-3276.93 5744.18,-3353.26 5741.13,-3385.21 5747.03,-3408.28 5763.02,-3431.38 5790.16,-3443.50 5866.31,-3467.76 5922.70,-3487.41 5980.61,-3504.93 5999.92,-3519.22 6026.79,-3524.77 6058.65,-3537.05 6048.04,-3550.39 6034.45,-3567.48 6004.22,-3552.40 5952.71,-3534.82 5890.26,-3510.86 5800.42,-3483.07 5752.68,-3468.83 5727.17,-3459.49 5720.25,-3449.06 5712.87,-3431.33 5700.59,-3392.26 5689.69,-3386.21 5690.40,-3381.46 5698.30,-3381.57 5703.04,-3366.22 5711.80,-3329.06 5716.18,-3301.54 5742.97,-3222.34 5763.17,-3170.53 5785.03,-3096.24 5804.75,-3027.59 5812.82,-3000.10 5844.56,-2915.60 5864.48,-2845.16 5877.58,-2773.41 5891.78,-2721.92 5909.04,-2683.69 5941.75,-2581.04 5961.45,-2504.98 5992.71,-2416.78 6015.71,-2340.02 6042.79,-2266.97 6065.09,-2189.13 6075.03,-2152.62 6089.80,-2098.45 6112.28,-2025.17 6138.19,-1947.63 6171.97,-1834.19 6189.59,-1770.07 6212.72,-1706.79 6236.20,-1640.41 6258.85,-1582.24 6281.98,-1512.70 6291.38,-1453.52 6293.59,-1402.04 6285.91,-1387.81 6282.97,-1356.32 6274.62,-1338.60 6270.59,-1330.04 6221.71,-1235.18 6194.56,-1188.80 6145.50,-1112.12 6139.52,-1096.14 6104.21,-1056.76 6080.00,-1011.63 6066.50,-984.60 6053.17,-980.32 6049.62,-971.26 6055.11,-964.09 6040.59,-939.34 5999.05,-867.82 5969.33,-819.85 5960.45,-802.17 5944.70,-805.77 5941.33,-799.25 5949.88,-792.28 5937.14,-776.27 5914.39,-731.24 5873.77,-671.09 5834.36,-607.46 5801.63,-538.92 5785.72,-548.50 5781.20,-540.59 5785.20,-533.71 5779.15,-510.39 5729.26,-422.70 5688.40,-355.66 5667.41,-315.85 5656.95,-299.42 5635.13,-265.15 5612.42,-231.39 5575.42,-195.65 5530.48,-170.17 5464.43,-127.57 5413.35,-91.17 5302.05,-8.19 5213.01,46.04 5089.17,129.53 5026.22,172.06 4990.29,196.34 4904.84,257.00 4826.90,309.36 4792.20,331.63 4755.26,355.32 4655.83,421.57 4577.66,472.80 4509.42,519.70 4436.16,571.31 4379.83,609.27 4332.08,642.88 4264.20,686.54 4214.78,721.47 4152.92,762.58 4144.82,770.21 4114.13,792.83 4054.88,835.34 4032.05,851.71 3927.90,921.45 3846.06,978.79 3841.21,975.22 3789.15,1014.26 3730.19,1059.20 3717.09,1060.20 3690.16,1083.41 3640.03,1130.89 3623.38,1146.54 3559.34,1216.02 3544.08,1220.15 3506.46,1267.06 3470.24,1303.72 3430.75,1341.43 3389.69,1383.79 3353.42,1420.86 3322.29,1452.07 3306.13,1464.20 3297.43,1470.73 3254.81,1508.92 3215.94,1548.89 3187.49,1582.15 3172.78,1585.54 3162.12,1605.14 3133.60,1635.62 3120.57,1639.29 3107.53,1651.62 3056.00,1700.70 2985.22,1769.57 2964.40,1791.92 2961.88,1804.61 2937.37,1821.54 2914.28,1846.80 2870.13,1890.36 2870.88,1904.33 2864.71,1910.67 2845.40,1910.46 2771.41,1984.47 2730.53,2023.80 2666.61,2087.77 2658.34,2106.65 2593.75,2172.79 2529.39,2236.00 2475.73,2290.17 2430.29,2336.92 2378.38,2382.30 2331.92,2429.62 2282.50,2480.45 2235.41,2524.24 2193.40,2568.48 2128.73,2633.99 2070.92,2695.10 2015.06,2749.04 2010.15,2753.79 1931.39,2828.50 1909.25,2852.02 1875.08,2886.29 1793.31,2957.68 1739.36,3011.22 1666.98,3079.37 1611.79,3133.04 1579.77,3160.77 1590.37,3175.34 1567.08,3189.33 1520.72,3239.44 1476.12,3280.58 1445.22,3319.17 1419.85,3343.93 1376.87,3381.71 1335.27,3421.92 1276.63,3483.39 1252.39,3508.35 1203.67,3550.75 1170.00,3578.81 1136.67,3604.59 1087.95,3645.72 1034.01,3690.98 989.86,3729.57 946.37,3766.22 901.25,3805.77 835.85,3861.88 774.71,3913.20 716.51,3963.25 627.95,4033.33 583.82,4070.63 549.81,4099.96 525.65,4117.46 499.92,4128.82 410.66,4171.80 306.38,4224.97 181.27,4286.62 168.32,4291.65 121.48,4313.62 97.60,4324.29 62.71,4340.03 58.12,4342.10 25.61,4363.30 4.11,4380.36 -18.31,4398.63 -33.11,4416.07 -60.62,4456.40 -102.05,4518.73 -155.36,4611.55 -194.05,4672.69 -253.18,4769.38 -315.64,4863.32 -408.78,5010.30 -505.62,5161.47 -728.39,5512.38 -849.92,5702.08 -947.77,5852.72 -1003.85,5949.01 -1028.35,5988.21 -1044.94,6010.33 -1064.13,6034.14 -1124.04,6080.69 -1154.38,6099.26 -1191.18,6118.44 -1232.20,6137.45 -1267.05,6149.23 -1310.41,6159.13 -1641.86,6209.49 -1981.25,6267.46 -2107.00,6288.69 -2151.66,6296.02 -2185.72,6298.63 -2216.77,6295.00 -2241.71,6288.77 -2277.52,6273.89 -2300.84,6261.27 -2329.05,6244.32 -2401.42,6196.00 -2496.07,6132.81 -2877.23,5882.40 -3068.23,5754.63 -3087.15,5783.88 -2461.86,6194.27 -2357.40,6267.25 -2327.41,6285.53 -2302.54,6299.48 -2277.05,6310.61 -2247.74,6320.66 -2224.25,6324.82 -2201.98,6328.70 -2170.64,6328.15 -2101.18,6319.57 -1823.09,6272.32 -1337.11,6193.83 -1301.72,6188.16 -1271.49,6181.60 -1250.74,6174.94 -1229.11,6166.58 -1201.43,6155.70 -1176.32,6143.94 -1146.85,6126.23 -1119.99,6111.92 -1081.82,6085.71 -1057.52,6067.95 -1029.70,6042.51 -1011.39,6021.26 -989.51,5986.33 -943.99,5912.21 -858.22,5776.77 -637.69,5429.24 -439.89,5115.76 -260.52,4837.23 -231.85,4814.37 -217.06,4799.94 -194.43,4777.01 -182.16,4756.57 -168.98,4730.98 -161.89,4709.63 -156.50,4686.54 -152.06,4672.87 -137.04,4635.30 -113.82,4589.32 -93.60,4558.21 -54.92,4497.06 -28.95,4458.53 -12.28,4437.18 3.43,4419.45 27.70,4399.07 63.89,4375.48 132.18,4341.60 154.07,4330.84 181.17,4317.53"/>
    <poly id="190303311" type="water" color="181,209,209" fill="1" layer="-4.00" shape="3071.18,4238.92 3067.57,4248.43 3063.35,4257.43 3053.55,4265.34 3045.82,4265.27 3036.51,4259.97 3033.28,4251.71 3033.92,4241.30 3042.29,4232.06 3056.69,4226.71 3069.42,4222.45 3074.51,4216.13 3074.24,4209.05 3069.13,4202.64 3060.60,4200.37 3049.46,4204.15 3041.51,4205.94 3034.92,4203.40 3033.25,4198.23 3030.86,4188.88 3031.48,4181.49 3028.49,4177.06 3021.14,4173.93 3018.72,4167.32 3017.43,4158.25 3021.37,4150.90 3029.63,4145.82 3039.83,4145.92 3050.91,4148.44 3061.90,4152.11 3079.74,4153.16 3093.22,4157.96 3097.82,4166.51 3099.16,4176.61 3101.46,4189.31 3104.12,4198.66 3101.87,4209.82 3100.93,4222.42 3100.55,4232.84 3092.77,4238.25 3083.94,4239.26 3076.70,4239.25 3071.18,4238.92"/>
    <poly id="190303318" type="water" color="181,209,209" fill="1" layer="-4.00" shape="3061.90,4180.08 3055.24,4184.68 3049.19,4182.43 3046.75,4178.30 3048.47,4171.18 3052.66,4166.01 3059.27,4166.63 3062.26,4171.58 3064.14,4176.82 3061.90,4180.08"/>
    <poly id="190311075" type="water" color="181,209,209" fill="1" layer="-4.00" shape="4106.10,2916.32 4091.36,2900.27 4081.32,2883.16 4078.70,2869.15 4074.65,2859.51 4068.96,2850.13 4063.54,2841.03 4064.17,2833.35 4075.24,2827.16 4084.04,2830.54 4092.23,2840.48 4105.94,2849.40 4130.39,2858.42 4140.76,2868.95 4152.18,2884.42 4162.25,2899.32 4166.80,2914.72 4175.80,2923.32 4183.96,2934.37 4195.64,2953.13 4208.15,2972.18 4212.42,2986.21 4217.82,2998.88 4230.34,3015.45 4246.98,3036.77 4265.74,3060.78 4277.96,3074.92 4287.01,3085.40 4297.02,3104.16 4312.97,3138.32 4317.18,3159.74 4317.82,3168.26 4318.89,3182.25 4328.99,3219.38 4342.04,3239.25 4358.17,3254.23 4366.26,3271.30 4382.98,3309.86 4382.50,3330.98 4382.53,3357.03 4385.95,3400.39 4387.35,3425.64 4385.83,3440.43 4382.11,3455.48 4386.87,3473.90 4387.02,3487.34 4363.17,3499.44 4356.38,3490.60 4352.42,3473.56 4342.66,3455.09 4338.03,3450.57 4328.46,3441.23 4317.29,3427.69 4314.94,3413.40 4315.84,3406.70 4317.03,3397.79 4325.73,3382.24 4340.81,3363.74 4348.13,3348.73 4354.06,3334.25 4353.92,3321.64 4354.69,3299.16 4346.61,3278.24 4336.83,3263.06 4327.05,3248.70 4311.41,3241.14 4290.55,3229.97 4250.35,3195.56 4234.28,3175.11 4222.33,3156.35 4213.24,3133.26 4205.43,3113.45 4202.15,3105.13 4197.94,3084.79 4191.41,3047.16 4192.41,3030.71 4197.02,3009.92 4197.17,2995.66 4193.49,2976.42 4181.25,2959.03 4170.33,2946.03 4145.90,2935.36 4120.34,2926.61 4110.47,2920.20 4106.10,2916.32"/>
    <poly id="194790136" type="water" color="181,209,209" fill="1" layer="-4.00" shape="1157.84,2314.01 1155.69,2308.77 1164.60,2298.98 1152.69,2304.90 1145.88,2295.79 1139.64,2284.75 1141.17,2268.87 1151.60,2246.75 1159.67,2239.43 1175.09,2237.60 1204.06,2236.79 1222.26,2241.13 1248.21,2238.36 1270.49,2245.16 1287.77,2251.32 1298.50,2254.99 1332.94,2263.04 1364.91,2265.82 1383.35,2269.57 1397.84,2283.15 1410.57,2302.97 1409.12,2309.55 1407.44,2312.82 1415.14,2318.69 1421.50,2317.66 1431.08,2325.15 1441.75,2334.58 1451.82,2343.96 1472.77,2349.97 1486.18,2355.81 1494.61,2369.34 1501.70,2381.79 1510.70,2391.47 1528.43,2408.89 1552.52,2431.38 1566.64,2450.39 1562.44,2460.26 1556.36,2461.85 1513.00,2467.19 1482.09,2468.81 1449.58,2464.93 1418.49,2456.67 1388.99,2455.29 1370.57,2449.08 1347.99,2446.11 1294.00,2438.47 1289.09,2432.39 1287.27,2420.84 1284.22,2422.46 1282.15,2432.27 1275.27,2435.54 1264.80,2433.79 1256.57,2429.60 1250.03,2421.58 1217.32,2409.20 1198.94,2398.59 1180.87,2385.26 1171.42,2364.04 1162.93,2329.14 1157.84,2314.01"/>
    <poly id="194790344" type="water" color="181,209,209" fill="0" layer="-4.00" shape="2015.06,2749.04 2004.84,2744.04 1973.70,2741.28 1956.23,2725.72 1880.34,2641.91 1811.05,2565.78 1777.79,2526.51 1740.63,2489.40 1698.27,2444.86 1658.68,2402.79 1607.44,2344.40 1543.48,2283.44 1530.60,2271.55 1527.14,2261.89 1521.64,2255.28 1511.49,2250.25 1490.74,2228.38 1464.03,2199.02 1447.44,2175.55 1427.25,2152.31 1414.14,2138.75 1395.49,2123.51 1382.41,2106.93 1357.53,2088.29 1328.81,2063.06 1317.87,2053.07 1307.98,2046.14 1300.27,2043.82 1294.51,2044.08 1285.32,2053.87 1261.84,2085.45 1247.42,2092.72 1231.90,2100.80 1170.01,2111.17 1147.89,2116.71 1124.98,2118.41 1100.33,2126.99"/>
    <poly id="194962554" type="water" color="181,209,209" fill="1" layer="-4.00" shape="1505.98,2339.30 1493.14,2326.01 1482.82,2309.73 1473.02,2297.02 1473.32,2293.18 1504.71,2270.72 1510.24,2266.14 1516.62,2266.73 1545.24,2297.20 1571.82,2319.37 1597.47,2343.51 1621.52,2370.32 1665.94,2422.06 1691.83,2453.85 1715.08,2474.09 1770.28,2527.84 1799.52,2560.46 1863.86,2633.52 1891.46,2663.93 1954.61,2737.74 1949.26,2744.24 1907.02,2764.59 1884.72,2722.90 1854.84,2686.06 1818.23,2650.87 1798.81,2632.85 1789.25,2623.71 1778.36,2609.62 1764.87,2605.93 1757.73,2602.83 1698.33,2528.49 1666.02,2499.67 1623.72,2456.73 1611.44,2442.90 1595.58,2429.30 1589.28,2424.58 1579.48,2410.77 1568.59,2396.13 1560.62,2392.76 1544.79,2376.15 1525.66,2357.32 1512.53,2346.22 1505.98,2339.30"/>
    <poly id="194962722" type="water" color="181,209,209" fill="1" layer="-4.00" shape="1684.19,2252.17 1668.42,2256.95 1661.72,2265.12 1669.87,2277.81 1699.79,2320.88 1699.91,2332.43 1673.29,2351.62 1679.59,2356.34 1690.75,2371.27 1718.47,2409.96 1727.82,2417.15 1758.84,2456.15 1770.32,2471.86 1784.12,2470.36 1792.02,2476.77 1807.91,2487.34 1843.37,2476.97 1903.60,2461.68 1939.01,2451.33 2009.86,2431.96 2048.82,2419.48 2061.61,2328.80 2080.08,2217.63 2087.09,2147.76 2091.52,2119.29 2091.62,2108.32 2089.73,2106.98 2086.97,2104.99 2077.56,2107.91 2062.87,2114.08 2009.73,2132.76 1967.13,2146.04 1914.79,2165.83 1870.51,2181.31 1798.25,2209.12 1719.93,2236.34 1684.19,2252.17"/>
    <poly id="194962723" type="water" color="181,209,209" fill="1" layer="-4.00" shape="1920.72,2577.00 1911.58,2581.58 1895.63,2576.21 1883.64,2585.17 1885.19,2601.06 1894.45,2612.39 1914.71,2624.14 1943.67,2628.78 1949.89,2636.55 1969.04,2652.37 1987.59,2650.05 2017.71,2644.86 2030.33,2651.84 2041.60,2651.43 2082.34,2635.35 2098.13,2624.29 2103.89,2604.29 2101.54,2590.28 2095.18,2586.95 2019.97,2582.90 1977.49,2582.76 1932.56,2579.31 1920.72,2577.00"/>
    <poly id="194973320" type="water" color="181,209,209" fill="1" layer="-4.00" shape="1770.01,2502.32 1757.97,2492.00 1762.72,2486.89 1768.30,2478.11 1774.69,2475.49 1783.23,2476.67 1794.18,2485.55 1795.78,2491.60 1786.34,2495.84 1772.49,2501.19 1770.01,2502.32"/>
    <poly id="194973322" type="water" color="181,209,209" fill="1" layer="-4.00" shape="1705.82,2437.80 1701.19,2431.99 1716.76,2418.70 1720.64,2418.19 1734.22,2437.20 1741.62,2442.75 1744.88,2448.00 1746.73,2455.69 1739.79,2462.25 1733.40,2466.59 1725.72,2462.39 1718.64,2452.72 1711.53,2446.08 1705.82,2437.80"/>
    <poly id="194973325" type="water" color="181,209,209" fill="1" layer="-4.00" shape="1666.94,2380.65 1683.30,2371.21 1699.63,2392.42 1712.42,2411.20 1708.49,2417.19 1698.77,2425.66 1691.60,2424.77 1683.93,2418.05 1670.37,2396.04 1664.38,2387.75 1666.94,2380.65"/>
    <poly id="194973326" type="water" color="181,209,209" fill="1" layer="-4.00" shape="1749.24,2483.20 1743.20,2480.67 1738.03,2472.67 1736.96,2469.36 1748.08,2460.42 1752.50,2459.91 1760.41,2466.79 1758.10,2478.01 1752.56,2482.13 1749.24,2483.20"/>
    <poly id="194973328" type="water" color="181,209,209" fill="1" layer="-4.00" shape="1830.34,2538.83 1820.73,2534.35 1813.10,2524.95 1803.75,2521.85 1791.43,2512.40 1782.14,2504.63 1787.42,2499.20 1812.04,2491.43 1822.82,2489.95 1827.96,2499.81 1830.90,2510.32 1836.83,2523.48 1836.73,2534.51 1830.34,2538.83"/>
    <poly id="194978444" type="water" color="181,209,209" fill="1" layer="-4.00" shape="2128.90,2103.75 2109.33,2102.46 2103.78,2105.69 2106.70,2115.55 2101.58,2131.67 2098.48,2168.73 2093.14,2204.83 2087.23,2246.78 2082.77,2278.77 2085.10,2295.04 2089.39,2306.54 2083.06,2333.35 2073.57,2346.76 2066.48,2366.15 2063.51,2388.61 2063.45,2420.93 2099.84,2423.47 2138.22,2420.34 2152.26,2423.50 2159.55,2439.47 2162.92,2460.56 2168.37,2468.90 2181.34,2467.65 2197.39,2462.27 2227.32,2448.91 2243.62,2446.05 2260.90,2454.66 2265.86,2456.68 2290.05,2436.08 2301.17,2426.26 2297.35,2421.83 2313.21,2409.43 2340.73,2387.75 2362.16,2367.94 2371.92,2355.91 2376.60,2357.61 2404.99,2332.16 2401.66,2305.52 2392.31,2274.72 2391.35,2260.17 2399.71,2251.20 2428.78,2239.36 2461.20,2224.32 2437.88,2127.88 2419.12,2070.93 2371.88,2077.27 2308.93,2084.66 2280.76,2089.05 2268.25,2096.55 2262.13,2103.41 2251.94,2102.21 2238.16,2100.71 2202.30,2101.17 2158.41,2103.77 2128.90,2103.75"/>
    <poly id="226581714" type="water" color="181,209,209" fill="1" layer="-4.00" shape="1297.06,3149.46 1329.91,3157.39 1331.73,3159.85 1329.17,3170.79 1331.29,3189.23 1336.74,3195.68 1361.73,3208.41 1362.62,3211.62 1358.14,3215.08 1354.02,3223.41 1350.40,3232.82 1343.84,3231.08 1329.65,3225.92 1313.20,3215.86 1297.70,3203.52 1290.88,3195.69 1292.19,3187.03 1283.98,3181.62 1283.42,3175.06 1285.13,3172.50 1288.12,3165.06 1287.99,3161.71 1292.48,3156.88 1292.82,3153.99 1293.30,3151.09 1297.06,3149.46"/>
    <poly id="226581716" type="water" color="181,209,209" fill="1" layer="-4.00" shape="1268.83,3410.69 1269.86,3405.00 1276.43,3397.63 1281.68,3391.76 1285.62,3386.96 1289.25,3381.71 1290.04,3378.92 1291.38,3374.31 1291.52,3371.51 1290.99,3369.88 1294.28,3365.83 1299.07,3363.28 1303.08,3363.22 1312.44,3358.79 1314.64,3354.50 1318.96,3355.63 1323.58,3358.79 1329.65,3359.27 1332.98,3362.01 1330.19,3369.62 1324.96,3374.31 1321.77,3378.27 1319.89,3382.76 1316.73,3384.78 1314.09,3388.84 1314.08,3390.03 1303.80,3400.59 1293.65,3408.56 1287.32,3413.56 1282.08,3416.97 1277.33,3416.59 1272.26,3413.64 1269.79,3411.89 1268.83,3410.69"/>
    <poly id="237389789" type="water" color="181,209,209" fill="0" layer="-4.00" shape="3022.74,4483.30 3051.46,4607.12 3083.74,4729.01 3087.16,4752.21 3088.22,4792.74 3087.56,4859.31 3088.81,4880.31 3107.39,4915.23 3131.80,4948.75 3156.82,4995.32 3174.61,5036.74 3188.97,5056.42 3196.80,5074.58 3208.94,5097.87 3211.02,5108.02 3210.80,5130.44 3205.44,5158.61 3199.12,5207.76 3190.03,5244.58 3181.64,5283.57 3171.94,5307.36 3166.58,5335.52 3158.24,5369.46 3150.66,5399.05 3142.27,5438.77 3134.65,5474.15 3127.11,5500.85 3123.22,5526.14 3116.41,5552.13"/>
    <poly id="237520347" type="building" color="255,230,230" fill="1" layer="-1.00" shape="2479.27,3651.44 2504.54,3789.19 2547.56,3819.19 2620.75,3805.89 2621.33,3800.19 2598.25,3671.54 2590.65,3629.18 2483.48,3647.33 2479.27,3651.44"/>
    <poly id="237520347#1" type="shop" color="237,199,255" fill="1" layer="-1.00" shape="2479.27,3651.44 2504.54,3789.19 2547.56,3819.19 2620.75,3805.89 2621.33,3800.19 2598.25,3671.54 2590.65,3629.18 2483.48,3647.33 2479.27,3651.44"/>
    <poly id="237520348" type="building" color="255,230,230" fill="1" layer="-1.00" shape="2345.39,4107.78 2355.30,4160.80 2507.85,4143.61 2497.52,4080.21 2345.39,4107.78"/>
    <poly id="237520348#1" type="shop" color="237,199,255" fill="1" layer="-1.00" shape="2345.39,4107.78 2355.30,4160.80 2507.85,4143.61 2497.52,4080.21 2345.39,4107.78"/>
    <poly id="237686047" type="amenity" color="237,199,199" fill="1" layer="-1.00" shape="1890.61,4125.62 1954.53,4120.83 1948.30,4035.15 1889.73,4073.54 1890.61,4125.62"/>
    <poly id="237686048" type="tourism" color="207,245,201" fill="1" layer="-2.00" shape="1786.78,3998.44 1804.96,4008.45 1820.35,4018.44 1837.71,4033.51 1845.37,4048.66 1853.18,4051.54 1862.70,4046.87 1865.06,4038.81 1863.02,4014.82 1862.07,4008.00 1858.05,4004.43 1848.44,4000.80 1810.40,3997.41 1786.78,3998.44"/>
    <poly id="237686050" type="tourism" color="207,245,201" fill="1" layer="-2.00" shape="1779.46,3947.04 1836.77,3952.13 1852.49,3953.55 1859.88,3950.09 1864.26,3943.07 1864.88,3932.22 1864.06,3911.52 1862.85,3905.45 1859.07,3902.64 1851.47,3901.56 1833.35,3911.73 1779.46,3947.04"/>
    <poly id="237686051" type="tourism" color="207,245,201" fill="1" layer="-2.00" shape="1890.95,3912.79 1889.56,3926.15 1889.91,3941.05 1893.13,3949.90 1899.94,3953.26 1915.17,3953.15 1955.04,3951.02 1989.09,3946.55 1975.96,3940.11 1929.18,3922.25 1914.03,3914.03 1903.68,3908.63 1895.05,3908.54 1890.95,3912.79"/>
    <poly id="237743377" type="residential" color="235,235,227" fill="1" layer="-3.00" shape="2160.92,4855.83 2178.99,4884.10 2149.22,4898.69 2183.54,4968.24 2273.13,4933.55 2249.46,4876.34 2219.72,4887.89 2185.42,4837.25 2160.92,4855.83"/>
    <poly id="237789687" type="water" color="181,209,209" fill="0" layer="-4.00" shape="1609.78,3175.39 1668.43,3235.86 1747.67,3312.22 1835.70,3399.48 2042.09,3600.80 2107.98,3729.08 2199.17,3895.88 2246.61,4092.71 2282.67,4242.29 2306.74,4306.34 2346.69,4360.72 2418.11,4428.18 2502.05,4527.17 2547.08,4603.55"/>
    <poly id="238627361" type="amenity" color="237,199,199" fill="1" layer="-1.00" shape="1333.60,4027.30 1420.65,4036.92 1432.07,3944.75 1340.41,3934.43 1330.16,4012.98 1328.43,4027.90 1333.60,4027.30"/>
    <poly id="238627361#1" type="building" color="255,230,230" fill="1" layer="-1.00" shape="1333.60,4027.30 1420.65,4036.92 1432.07,3944.75 1340.41,3934.43 1330.16,4012.98 1328.43,4027.90 1333.60,4027.30"/>
    <poly id="238627362" type="residential" color="235,235,227" fill="1" layer="-3.00" shape="1431.58,3884.16 1548.44,3892.42 1556.98,3804.53 1556.14,3792.36 1553.07,3787.08 1467.61,3810.12 1429.98,3822.17 1424.86,3838.03 1425.03,3876.42 1431.58,3884.16"/>
    <poly id="238651370" type="leisure" color="207,245,201" fill="1" layer="-2.00" shape="1772.50,4520.71 1858.88,4513.80 1852.07,4413.32 1765.08,4420.22 1772.50,4520.71"/>
    <poly id="238688333" type="amenity" color="237,199,199" fill="1" layer="-1.00" shape="4270.48,3571.38 4308.72,3679.94 4374.97,3665.81 4335.74,3557.99 4324.05,3560.41 4310.91,3562.34 4295.77,3566.27 4270.48,3571.38"/>
    <poly id="238688333#1" type="building" color="255,230,230" fill="1" layer="-1.00" shape="4270.48,3571.38 4308.72,3679.94 4374.97,3665.81 4335.74,3557.99 4324.05,3560.41 4310.91,3562.34 4295.77,3566.27 4270.48,3571.38"/>
    <poly id="238688334" type="amenity" color="237,199,199" fill="1" layer="-1.00" shape="4167.58,3739.54 4299.45,3709.33 4253.73,3574.23 4118.96,3605.37 4167.58,3739.54"/>
    <poly id="238694805" type="building" color="255,230,230" fill="1" layer="-1.00" shape="3720.44,3876.87 3820.27,3860.55 3811.85,3831.77 3711.23,3848.47 3720.44,3876.87"/>
    <poly id="332064891" type="water" color="181,209,209" fill="1" layer="-4.00" shape="2390.12,2489.62 2408.68,2516.84 2426.85,2530.79 2470.11,2544.74 2474.84,2542.18 2451.17,2475.92 2443.87,2474.29 2423.40,2482.93 2403.85,2476.23 2390.17,2485.20 2390.12,2489.62"/>
    <poly id="332064892" type="water" color="181,209,209" fill="1" layer="-4.00" shape="2737.43,2700.97 2735.18,2715.64 2731.51,2739.51 2741.02,2748.43 2801.55,2760.05 2837.96,2779.90 2853.01,2790.71 2873.75,2787.97 2898.99,2777.18 2911.68,2765.55 2920.32,2751.29 2941.95,2732.38 2946.10,2722.87 2930.62,2717.94 2838.33,2704.17 2788.48,2697.43 2737.43,2700.97"/>
    <poly id="332064893" type="water" color="181,209,209" fill="1" layer="-4.00" shape="2762.67,2371.07 2797.85,2436.15 2812.33,2424.86 2860.68,2400.10 2818.98,2334.71 2762.67,2371.07"/>
    <poly id="332064894" type="water" color="181,209,209" fill="1" layer="-4.00" shape="2366.58,2464.18 2376.11,2478.83 2383.39,2482.80 2408.16,2464.06 2408.48,2456.79 2397.15,2438.48 2366.58,2464.18"/>
    <poly id="332064896" type="residential" color="235,235,227" fill="1" layer="-3.00" shape="2453.11,2478.24 2463.55,2516.92 2594.00,2481.21 2605.98,2540.59 2670.51,2529.75 2727.35,2480.73 2795.17,2442.61 2751.95,2371.49 2919.27,2264.99 2987.67,2221.99 3074.93,2130.54 2909.81,1931.00 2528.47,2306.55 2589.29,2429.16 2453.11,2478.24"/>
    <poly id="332064897" type="water" color="181,209,209" fill="0" layer="-4.00" shape="2731.51,2739.51 2731.31,2759.36 2740.71,2780.04 2805.70,2788.77 2817.00,2806.52 2824.54,2828.65 2820.97,2890.75 2809.04,2901.29 2769.38,2911.56 2738.98,2919.35 2646.41,2934.25 2610.74,2951.92 2599.12,2967.98 2547.58,2983.65 2529.70,2996.71 2535.03,3018.82 2516.72,3039.23 2535.94,3076.91 2590.39,3104.28"/>
    <poly id="348966840" type="building" color="255,230,230" fill="1" layer="-1.00" shape="3157.70,3138.72 3167.86,3137.60 3163.98,3103.03 3151.68,3104.39 3152.44,3104.31 3153.73,3115.80 3148.75,3116.35 3149.90,3126.65 3156.27,3125.95 3157.70,3138.72"/>
    <poly id="348966843" type="building" color="255,230,230" fill="1" layer="-1.00" shape="3673.76,3518.51 3708.96,3508.23 3705.30,3495.84 3700.79,3497.16 3698.70,3490.10 3697.78,3490.38 3688.61,3493.06 3690.19,3498.40 3684.62,3500.03 3683.04,3494.68 3673.67,3497.42 3672.94,3497.63 3675.56,3506.48 3670.63,3507.92 3673.76,3518.51"/>
    <poly id="348966846" type="building" color="255,230,230" fill="1" layer="-1.00" shape="3277.71,3138.63 3277.17,3096.89 3266.75,3097.02 3266.79,3106.57 3256.33,3106.71 3256.64,3130.25 3266.75,3130.11 3266.86,3138.76 3277.71,3138.63"/>
    <poly id="348966850" type="amenity" color="237,199,199" fill="1" layer="-1.00" shape="4476.29,3427.85 4496.99,3410.55 4503.23,3403.08 4508.70,3397.88 4502.52,3381.57 4509.08,3374.61 4499.86,3350.80 4495.61,3341.30 4489.45,3344.60 4484.30,3346.91 4476.59,3350.68 4469.91,3354.14 4454.75,3362.04 4458.97,3375.57 4462.63,3384.94 4464.99,3390.87 4466.82,3397.36 4476.29,3427.85"/>
    <poly id="348966850#1" type="building" color="255,230,230" fill="1" layer="-1.00" shape="4476.29,3427.85 4496.99,3410.55 4503.23,3403.08 4508.70,3397.88 4502.52,3381.57 4509.08,3374.61 4499.86,3350.80 4495.61,3341.30 4489.45,3344.60 4484.30,3346.91 4476.59,3350.68 4469.91,3354.14 4454.75,3362.04 4458.97,3375.57 4462.63,3384.94 4464.99,3390.87 4466.82,3397.36 4476.29,3427.85"/>
    <poly id="348966853" type="building" color="255,230,230" fill="1" layer="-1.00" shape="3875.80,3526.89 3875.10,3518.16 3872.41,3518.38 3871.92,3512.16 3874.97,3511.92 3874.42,3504.94 3857.62,3506.26 3857.22,3501.25 3848.14,3501.96 3849.88,3523.86 3866.10,3522.58 3866.49,3527.62 3875.80,3526.89"/>
    <poly id="348966855" type="building" color="255,230,230" fill="1" layer="-1.00" shape="3938.38,2816.08 3931.09,2808.45 3920.50,2818.45 3927.80,2826.08 3938.38,2816.08"/>
    <poly id="348966861" type="building" color="255,230,230" fill="1" layer="-1.00" shape="3303.33,2922.92 3310.75,2911.43 3291.59,2899.20 3284.18,2910.69 3303.33,2922.92"/>
    <poly id="348966863" type="building" color="255,230,230" fill="1" layer="-1.00" shape="3552.95,2946.68 3542.15,2943.34 3537.24,2959.07 3548.05,2962.41 3552.95,2946.68"/>
    <poly id="348966866" type="building" color="255,230,230" fill="1" layer="-1.00" shape="3932.27,3454.93 3945.60,3450.97 3940.09,3432.71 3926.78,3436.67 3932.27,3454.93"/>
    <poly id="348966868" type="building" color="255,230,230" fill="1" layer="-1.00" shape="3364.62,3972.43 3377.15,3970.91 3375.26,3955.59 3362.73,3957.12 3364.62,3972.43"/>
    <poly id="348966870" type="building" color="255,230,230" fill="1" layer="-1.00" shape="3678.27,4187.62 3681.74,4203.40 3689.63,4201.70 3686.17,4185.92 3678.27,4187.62"/>
    <poly id="348966872" type="building" color="255,230,230" fill="1" layer="-1.00" shape="3192.17,3830.57 3191.08,3825.22 3194.41,3825.04 3192.53,3805.23 3170.57,3807.77 3163.92,3812.53 3166.10,3829.56 3168.76,3829.34 3168.67,3833.79 3192.17,3830.57"/>
    <poly id="348966875" type="building" color="255,230,230" fill="1" layer="-1.00" shape="3129.08,3494.94 3145.69,3493.24 3144.55,3482.29 3127.94,3483.97 3129.08,3494.94"/>
    <poly id="348966877" type="building" color="255,230,230" fill="1" layer="-1.00" shape="3686.01,4247.25 3692.50,4245.66 3689.56,4233.80 3683.08,4235.38 3686.01,4247.25"/>
    <poly id="348966880" type="building" color="255,230,230" fill="1" layer="-1.00" shape="3072.00,3649.61 3069.57,3637.16 3052.40,3640.47 3054.82,3652.92 3072.00,3649.61"/>
    <poly id="348966883" type="building" color="255,230,230" fill="1" layer="-1.00" shape="3505.90,3464.90 3504.24,3451.49 3494.41,3452.69 3496.08,3466.10 3505.90,3464.90"/>
    <poly id="348966885" type="building" color="255,230,230" fill="1" layer="-1.00" shape="3206.57,3458.07 3216.55,3456.91 3214.49,3439.52 3204.51,3440.69 3206.57,3458.07"/>
    <poly id="348966888" type="building" color="255,230,230" fill="1" layer="-1.00" shape="3675.31,3140.70 3671.83,3136.25 3666.86,3140.09 3662.98,3135.12 3667.95,3131.28 3663.46,3125.53 3654.09,3132.75 3658.42,3138.32 3649.33,3145.35 3644.98,3139.78 3635.64,3146.98 3638.70,3150.89 3640.52,3149.48 3646.23,3156.78 3644.40,3158.19 3647.49,3162.15 3656.57,3155.16 3652.99,3150.56 3661.64,3143.88 3665.23,3148.48 3675.31,3140.70"/>
    <poly id="348966892" type="building" color="255,230,230" fill="1" layer="-1.00" shape="3502.63,3622.62 3513.78,3621.43 3511.62,3601.53 3500.48,3602.73 3502.63,3622.62"/>