[General]
cmdenv-express-mode = true
cmdenv-autoflush = true
cmdenv-status-frequency = 1s
**.cmdenv-log-level = info

ned-path = .
image-path = ../../images

network = RSUExampleScenario

##########################################################
#            Simulation parameters                       #
##########################################################
debug-on-errors = true
print-undisposed = false

sim-time-limit = 200s

**.scalar-recording = true
**.vector-recording = true

**.debug = false
**.coreDebug = false

*.playgroundSizeX = 7000m
*.playgroundSizeY = 7000m
*.playgroundSizeZ = 50m


##########################################################
# Annotation parameters                                  #
##########################################################
*.annotations.draw = true

##########################################################
# Obstacle parameters                                    #
##########################################################
*.obstacles.debug = false
*.obstacles.obstacles = xmldoc("config.xml", "//AnalogueModel[@type='SimpleObstacleShadowing']/obstacles")

##########################################################
#            TraCIScenarioManager parameters             #
##########################################################
*.manager.updateInterval = 1s
*.manager.host = "localhost"
*.manager.port = 9999
*.manager.autoShutdown = true
*.manager.launchConfig = xmldoc("map.launchd.xml")

##########################################################
#                       RSU SETTINGS                     #
#                                                        #
#                                                        #
##########################################################
*.rsu[0].mobility.x = 2715.54
*.rsu[0].mobility.y = 4716.78
*.rsu[0].mobility.z = 1.895


*.rsu1[0].mobility.x = 2513.85
*.rsu1[0].mobility.y = 4792.55
*.rsu1[0].mobility.z = 1.895

*.rsu2[0].mobility.x = 2720.32
*.rsu2[0].mobility.y = 4723.16
*.rsu2[0].mobility.z = 1.895

*.rsu3[0].mobility.x = 2697.64
*.rsu3[0].mobility.y = 4824.6
*.rsu3[0].mobility.z = 1.895

*.rsu4[0].mobility.x = 2480.39
*.rsu4[0].mobility.y = 4993.43
*.rsu4[0].mobility.z = 1.895

*.rsu1[*].applType = "TraCIDemoRSU11p"
*.rsu1[*].appl.headerLength = 80 bit
*.rsu1[*].appl.sendBeacons = true
*.rsu1[*].appl.dataOnSch = false
*.rsu1[*].appl.beaconInterval = 4s
*.rsu1[*].appl.beaconUserPriority = 7
*.rsu1[*].appl.dataUserPriority = 5

*.rsu2[*].applType = "TraCIDemoRSU11p"
*.rsu2[*].appl.headerLength = 80 bit
*.rsu2[*].appl.sendBeacons = true
*.rsu2[*].appl.dataOnSch = false
*.rsu2[*].appl.beaconInterval = 4s
*.rsu2[*].appl.beaconUserPriority = 7
*.rsu2[*].appl.dataUserPriority = 5

*.rsu3[*].applType = "TraCIDemoRSU11p"
*.rsu3[*].appl.headerLength = 80 bit
*.rsu3[*].appl.sendBeacons = true
*.rsu3[*].appl.dataOnSch = false
*.rsu3[*].appl.beaconInterval = 4s
*.rsu3[*].appl.beaconUserPriority = 7
*.rsu3[*].appl.dataUserPriority = 5

*.rsu4[*].applType = "TraCIDemoRSU11p"
*.rsu4[*].appl.headerLength = 80 bit
*.rsu4[*].appl.sendBeacons = true
*.rsu4[*].appl.dataOnSch = false
*.rsu4[*].appl.beaconInterval = 4s
*.rsu4[*].appl.beaconUserPriority = 7
*.rsu4[*].appl.dataUserPriority = 5


*.rsu[*].applType = "TraCIDemoRSU11p"
*.rsu[*].appl.headerLength = 80 bit
*.rsu[*].appl.sendBeacons = true
*.rsu[*].appl.dataOnSch = false
*.rsu[*].appl.beaconInterval = 4s
*.rsu[*].appl.beaconUserPriority = 7
*.rsu[*].appl.dataUserPriority = 5



##########################################################
#            11p specific parameters                     #
#                                                        #
#                    NIC-Settings                        #
##########################################################
*.connectionManager.sendDirect = true
*.connectionManager.maxInterfDist = 2600m
*.connectionManager.drawMaxIntfDist = false

*.**.nic.mac1609_4.useServiceChannel = false

*.**.nic.mac1609_4.txPower = 20mW
*.**.nic.mac1609_4.bitrate = 6Mbps
*.**.nic.phy80211p.sensitivity = -89dBm

*.**.nic.phy80211p.useThermalNoise = true
*.**.nic.phy80211p.thermalNoise = -110dBm

*.**.nic.phy80211p.decider = xmldoc("config.xml")
*.**.nic.phy80211p.analogueModels = xmldoc("config.xml")
*.**.nic.phy80211p.usePropagationDelay = true

*.**.nic.phy80211p.antenna = xmldoc("antenna.xml", "/root/Antenna[@id='monopole']")

##########################################################
#                    WaveAppLayer                        #
##########################################################
#*.node[*].applType = "TraCIDemo11p"
*.node[*].applType = "MyVeinsApp"
*.node[*].appl.headerLength = 80 bit
*.node[*].appl.sendBeacons = true
*.node[*].appl.dataOnSch = false
*.node[*].appl.beaconInterval = 3s

##########################################################
#                      Mobility                          #
##########################################################
*.node[*].veinsmobilityType.debug = true
*.node[*].veinsmobility.x = 0
*.node[*].veinsmobility.y = 0
*.node[*].veinsmobility.z = 1.895
*.node[*0].veinsmobility.accidentCount = 1
*.node[*0].veinsmobility.accidentStart = 75s
*.node[*0].veinsmobility.accidentDuration = 50s

[Config WithoutChannelSwitching]

[Config WithChannelSwitching]
*.**.nic.mac1609_4.useServiceChannel = true
*.node[*].appl.dataOnSch = true
*.rsu[*].appl.dataOnSch = true
*.rsu1[*].appl.dataOnSch = true

